CM --- NEC2 Input File created or edited by xnec2c 4.1.1 ---
CE --- End Comments ---
GW 1 15 0.0 0.0 -1.0 0.0 0.0 1.0 0.015
GE 0 0 0 0 0 0 0 0 0
EX 0 1 8 0 1.0 0.0 0.0 0.0 0.0 0.0
FR 0 11 0 0 50.0 5.0 0.0 0.0 0.0 0.0
NH 0 0 0 0 0.0 0.0 0.0 0.0 0.0 0.0
NE 0 10 1 10 -1.35 0.0 -1.35 0.3 0.0 0.3
RP 0 19 37 1000 0.0 0.0 10.0 10.0 0.0 0.0
EN 0 0 0 0 0 0 0 0 0 0
